LTspice 24.0.12 for Windows
Circuit: * C:\Users\imath\Documents\LTspice\Draft13.asc
Start Time: Sun Sep 15 17:27:56 2024
Error on line 7 : v1 n001 0 v
	 Unknown parameter "v"
Error on line 937 : .diode d1 is=1e-9,rs=1
	 Unknown control card
Error on line 938 : .diode d2 is=1e-9,rs=1
	 Unknown control card
solver = Normal
Maximum thread count: 16
tnom = 27
temp = 27
method = modified trap
v1: Missing value, assumed 0V @ DC
Total elapsed time: 0.127 seconds.

